M001
  Spartan 07221915043D

 15 15  0  0  0  0  0  0  0  0999 V2000
    0.0028   -0.0002    1.0521 C   0  0  0  0  0  0  0  0  0  0  0  0
   -0.0182   -0.0019    3.8561 C   0  0  0  0  0  0  0  0  0  0  0  0
    0.1413   -1.2011    1.7449 C   0  0  0  0  0  0  0  0  0  0  0  0
   -0.1406    1.2005    1.7443 C   0  0  0  0  0  0  0  0  0  0  0  0
   -0.1478    1.2006    3.1417 C   0  0  0  0  0  0  0  0  0  0  0  0
    0.1343   -1.2021    3.1424 C   0  0  0  0  0  0  0  0  0  0  0  0
    0.2565   -2.1376    1.2047 H   0  0  0  0  0  0  0  0  0  0  0  0
   -0.2455    2.1379    1.2037 H   0  0  0  0  0  0  0  0  0  0  0  0
   -0.2570    2.1451    3.6737 H   0  0  0  0  0  0  0  0  0  0  0  0
    0.2468   -2.1460    3.6748 H   0  0  0  0  0  0  0  0  0  0  0  0
    0.0120    0.0004   -0.6681 Cl  0  0  0  0  0  0  0  0  0  0  0  0
   -0.0028    0.0002    5.3667 C   0  0  0  0  0  0  0  0  0  0  0  0
   -0.4909   -1.1509    5.9071 F   0  0  0  0  0  0  0  0  0  0  0  0
    1.2532    0.1478    5.8698 F   0  0  0  0  0  0  0  0  0  0  0  0
   -0.7442    1.0074    5.9065 F   0  0  0  0  0  0  0  0  0  0  0  0
  1  4  4  0  0  0  0
  4  5  4  0  0  0  0
  2  5  4  0  0  0  0
  2  6  4  0  0  0  0
  3  6  4  0  0  0  0
  1  3  4  0  0  0  0
  5  9  1  0  0  0  0
  6 10  1  0  0  0  0
  3  7  1  0  0  0  0
  4  8  1  0  0  0  0
  1 11  1  0  0  0  0
  2 12  1  0  0  0  0
 12 13  1  0  0  0  0
 12 14  1  0  0  0  0
 12 15  1  0  0  0  0
M  END
$$$$
