M001
  Spartan 07221915173D

 11 11  0  0  0  0  0  0  0  0999 V2000
    0.1341    0.4165    1.1256 O   0  0  0  0  0  0  0  0  0  0  0  0
    1.1043    0.2144    2.0921 N   0  0  0  0  0  0  0  0  0  0  0  0
    0.4434    0.0612    3.2446 C   0  0  0  0  0  0  0  0  0  0  0  0
   -0.9513    0.1599    3.0509 C   0  0  0  0  0  0  0  0  0  0  0  0
   -1.1023    0.3842    1.6996 C   0  0  0  0  0  0  0  0  0  0  0  0
   -1.7381    0.0797    3.7862 H   0  0  0  0  0  0  0  0  0  0  0  0
    1.1859   -0.1768    4.5022 C   0  0  0  0  0  0  0  0  0  0  0  0
    1.7780   -1.0949    4.4319 H   0  0  0  0  0  0  0  0  0  0  0  0
    0.5020   -0.2799    5.3507 H   0  0  0  0  0  0  0  0  0  0  0  0
    1.8630    0.6572    4.7133 H   0  0  0  0  0  0  0  0  0  0  0  0
   -1.9738    0.5303    1.0513 H   0  0  0  0  0  0  0  0  0  0  0  0
  1  2  1  0  0  0  0
  1  5  1  0  0  0  0
  2  3  2  0  0  0  0
  3  4  1  0  0  0  0
  4  6  1  0  0  0  0
  4  5  2  0  0  0  0
  7  8  1  0  0  0  0
  7  9  1  0  0  0  0
  7 10  1  0  0  0  0
  3  7  1  0  0  0  0
  5 11  1  0  0  0  0
M  END
$$$$
