M001
  Spartan 07221915213D

 19 20  0  0  0  0  0  0  0  0999 V2000
    2.0188    0.1996   -4.4329 O   0  0  0  0  0  0  0  0  0  0  0  0
    0.7059    0.3002   -3.9961 N   0  0  0  0  0  0  0  0  0  0  0  0
    0.5582   -0.6891   -3.1087 C   0  0  0  0  0  0  0  0  0  0  0  0
    1.7358   -1.4427   -2.9448 C   0  0  0  0  0  0  0  0  0  0  0  0
    2.6273   -0.8422   -3.8015 C   0  0  0  0  0  0  0  0  0  0  0  0
    1.9204   -2.2925   -2.3061 H   0  0  0  0  0  0  0  0  0  0  0  0
   -0.6959   -0.8671   -2.4620 N   0  0  0  0  0  0  0  0  0  0  0  0
   -1.0001   -1.8396   -1.5265 C   0  0  0  0  0  0  0  0  0  0  0  0
   -2.3121   -1.6902   -1.1310 C   0  0  0  0  0  0  0  0  0  0  0  0
   -2.8412   -0.5916   -1.8414 C   0  0  0  0  0  0  0  0  0  0  0  0
   -1.8355   -0.1059   -2.6474 C   0  0  0  0  0  0  0  0  0  0  0  0
   -0.2586   -2.5617   -1.2158 H   0  0  0  0  0  0  0  0  0  0  0  0
   -2.8295   -2.3081   -0.4081 H   0  0  0  0  0  0  0  0  0  0  0  0
   -3.8457   -0.1933   -1.7764 H   0  0  0  0  0  0  0  0  0  0  0  0
   -1.8289    0.7226   -3.3440 H   0  0  0  0  0  0  0  0  0  0  0  0
    4.0362   -1.0859   -4.1565 C   0  0  0  0  0  0  0  0  0  0  0  0
    4.6477   -0.2088   -3.9236 H   0  0  0  0  0  0  0  0  0  0  0  0
    4.1310   -1.2996   -5.2255 H   0  0  0  0  0  0  0  0  0  0  0  0
    4.4391   -1.9389   -3.6018 H   0  0  0  0  0  0  0  0  0  0  0  0
  1  2  1  0  0  0  0
  1  5  1  0  0  0  0
  2  3  2  0  0  0  0
  3  4  1  0  0  0  0
  4  5  2  0  0  0  0
  4  6  1  0  0  0  0
  7  8  1  0  0  0  0
  7 11  1  0  0  0  0
  8 12  1  0  0  0  0
  8  9  2  0  0  0  0
  9 13  1  0  0  0  0
  9 10  1  0  0  0  0
 10 14  1  0  0  0  0
 10 11  2  0  0  0  0
 11 15  1  0  0  0  0
  3  7  1  0  0  0  0
 16 17  1  0  0  0  0
 16 18  1  0  0  0  0
 16 19  1  0  0  0  0
  5 16  1  0  0  0  0
M  END
$$$$
