M001
  Spartan 07221915213D

 11 11  0  0  0  0  0  0  0  0999 V2000
    3.0030    0.5641   -0.7104 O   0  0  0  0  0  0  0  0  0  0  0  0
    1.6599    0.9054   -0.7490 N   0  0  0  0  0  0  0  0  0  0  0  0
    1.0331   -0.0533   -0.0636 C   0  0  0  0  0  0  0  0  0  0  0  0
    1.9252   -1.0216    0.4287 C   0  0  0  0  0  0  0  0  0  0  0  0
    3.1548   -0.5897   -0.0043 C   0  0  0  0  0  0  0  0  0  0  0  0
    1.7061   -1.9028    1.0119 H   0  0  0  0  0  0  0  0  0  0  0  0
   -0.0410   -0.0004    0.0440 H   0  0  0  0  0  0  0  0  0  0  0  0
    4.5315   -1.0948    0.1330 C   0  0  0  0  0  0  0  0  0  0  0  0
    5.1612   -0.3591    0.6427 H   0  0  0  0  0  0  0  0  0  0  0  0
    4.9653   -1.2987   -0.8507 H   0  0  0  0  0  0  0  0  0  0  0  0
    4.5536   -2.0221    0.7136 H   0  0  0  0  0  0  0  0  0  0  0  0
  1  2  1  0  0  0  0
  1  5  1  0  0  0  0
  2  3  2  0  0  0  0
  3  4  1  0  0  0  0
  4  5  2  0  0  0  0
  4  6  1  0  0  0  0
  3  7  1  0  0  0  0
  8  9  1  0  0  0  0
  8 10  1  0  0  0  0
  8 11  1  0  0  0  0
  5  8  1  0  0  0  0
M  END
$$$$
