M001
  Spartan 07221915243D

 14 15  0  0  0  0  0  0  0  0999 V2000
    2.8549   -0.0636   -0.9633 O   0  0  0  0  0  0  0  0  0  0  0  0
    1.6372    0.5957   -1.0498 N   0  0  0  0  0  0  0  0  0  0  0  0
    0.8366    0.0472   -0.1191 C   0  0  0  0  0  0  0  0  0  0  0  0
    1.5666   -0.9838    0.5722 C   0  0  0  0  0  0  0  0  0  0  0  0
    2.8070   -1.0097    0.0110 C   0  0  0  0  0  0  0  0  0  0  0  0
    3.7109   -1.5807    0.1572 H   0  0  0  0  0  0  0  0  0  0  0  0
   -0.4952    0.3335    0.2235 C   0  0  0  0  0  0  0  0  0  0  0  0
   -1.0788    1.0983   -0.2695 H   0  0  0  0  0  0  0  0  0  0  0  0
   -0.9957   -0.4726    1.2713 C   0  0  0  0  0  0  0  0  0  0  0  0
   -2.0239   -0.3145    1.5990 H   0  0  0  0  0  0  0  0  0  0  0  0
   -0.2268   -1.4871    1.9275 C   0  0  0  0  0  0  0  0  0  0  0  0
   -0.7082   -2.0542    2.7259 H   0  0  0  0  0  0  0  0  0  0  0  0
    1.1113   -1.7950    1.6036 C   0  0  0  0  0  0  0  0  0  0  0  0
    1.6832   -2.5629    2.1052 H   0  0  0  0  0  0  0  0  0  0  0  0
  1  2  1  0  0  0  0
  1  5  1  0  0  0  0
  2  3  2  0  0  0  0
  3  4  1  0  0  0  0
  4  5  2  0  0  0  0
  5  6  1  0  0  0  0
  7  8  1  0  0  0  0
  3  7  1  0  0  0  0
  9 10  1  0  0  0  0
  7  9  2  0  0  0  0
 11 12  1  0  0  0  0
  9 11  1  0  0  0  0
 13 14  1  0  0  0  0
 11 13  2  0  0  0  0
 13  4  1  0  0  0  0
M  END
$$$$
