M001
  Spartan 07221915253D

 14 15  0  0  0  0  0  0  0  0999 V2000
    0.9824    0.6976   -1.0399 O   0  0  0  0  0  0  0  0  0  0  0  0
    1.5661   -0.3704   -1.7111 N   0  0  0  0  0  0  0  0  0  0  0  0
    1.5256   -1.3907   -0.8484 C   0  0  0  0  0  0  0  0  0  0  0  0
    0.9320   -1.0352    0.3794 C   0  0  0  0  0  0  0  0  0  0  0  0
    0.6055    0.2983    0.2057 C   0  0  0  0  0  0  0  0  0  0  0  0
    1.9299   -2.3451   -1.1530 H   0  0  0  0  0  0  0  0  0  0  0  0
    0.6303   -1.6570    1.6016 C   0  0  0  0  0  0  0  0  0  0  0  0
    0.8704   -2.7013    1.7768 H   0  0  0  0  0  0  0  0  0  0  0  0
    0.0067   -0.8916    2.5988 C   0  0  0  0  0  0  0  0  0  0  0  0
   -0.2359   -1.3541    3.5539 H   0  0  0  0  0  0  0  0  0  0  0  0
   -0.3082    0.4550    2.3863 C   0  0  0  0  0  0  0  0  0  0  0  0
   -0.7919    1.0234    3.1786 H   0  0  0  0  0  0  0  0  0  0  0  0
   -0.0128    1.0862    1.1726 C   0  0  0  0  0  0  0  0  0  0  0  0
   -0.2490    2.1274    0.9901 H   0  0  0  0  0  0  0  0  0  0  0  0
  1  2  1  0  0  0  0
  1  5  1  0  0  0  0
  2  3  2  0  0  0  0
  3  4  1  0  0  0  0
  4  5  2  0  0  0  0
  3  6  1  0  0  0  0
  7  8  1  0  0  0  0
  4  7  1  0  0  0  0
  9 10  1  0  0  0  0
  7  9  2  0  0  0  0
 11 12  1  0  0  0  0
  9 11  1  0  0  0  0
 13 14  1  0  0  0  0
 11 13  2  0  0  0  0
 13  5  1  0  0  0  0
M  END
$$$$
