M001
  Spartan 07221915293D

 20 20  0  0  0  0  0  0  0  0999 V2000
    2.7438   -0.6849   -1.4371 O   0  0  0  0  0  0  0  0  0  0  0  0
    1.6701    0.1690   -1.6178 N   0  0  0  0  0  0  0  0  0  0  0  0
    1.0619    0.2227   -0.4317 C   0  0  0  0  0  0  0  0  0  0  0  0
    1.7032   -0.5752    0.5402 C   0  0  0  0  0  0  0  0  0  0  0  0
    2.7624   -1.1285   -0.1494 C   0  0  0  0  0  0  0  0  0  0  0  0
    1.3159   -0.7493    1.9187 C   0  0  0  0  0  0  0  0  0  0  0  0
    0.1791    0.8381   -0.3216 H   0  0  0  0  0  0  0  0  0  0  0  0
    0.3369   -0.1953    2.4026 O   0  0  0  0  0  0  0  0  0  0  0  0
    2.1459   -1.5864    2.6048 O   0  0  0  0  0  0  0  0  0  0  0  0
    1.8186   -1.8037    3.9851 C   0  0  0  0  0  0  0  0  0  0  0  0
    2.7496   -2.0721    4.4952 H   0  0  0  0  0  0  0  0  0  0  0  0
    1.4467   -0.8871    4.4570 H   0  0  0  0  0  0  0  0  0  0  0  0
    0.8220   -2.9402    4.1131 C   0  0  0  0  0  0  0  0  0  0  0  0
    0.6109   -3.1544    5.1646 H   0  0  0  0  0  0  0  0  0  0  0  0
    1.2105   -3.8473    3.6386 H   0  0  0  0  0  0  0  0  0  0  0  0
   -0.1192   -2.6963    3.6104 H   0  0  0  0  0  0  0  0  0  0  0  0
    3.8581   -2.0552    0.1965 C   0  0  0  0  0  0  0  0  0  0  0  0
    4.5033   -2.2497   -0.6662 H   0  0  0  0  0  0  0  0  0  0  0  0
    3.4566   -3.0142    0.5381 H   0  0  0  0  0  0  0  0  0  0  0  0
    4.4800   -1.6345    0.9925 H   0  0  0  0  0  0  0  0  0  0  0  0
  1  2  1  0  0  0  0
  1  5  1  0  0  0  0
  2  3  2  0  0  0  0
  3  4  1  0  0  0  0
  4  5  2  0  0  0  0
  6  4  1  0  0  0  0
  3  7  1  0  0  0  0
  6  8  2  0  0  0  0
  6  9  1  0  0  0  0
 10 11  1  0  0  0  0
 10 12  1  0  0  0  0
  9 10  1  0  0  0  0
 13 14  1  0  0  0  0
 13 15  1  0  0  0  0
 13 16  1  0  0  0  0
 10 13  1  0  0  0  0
 17 18  1  0  0  0  0
 17 19  1  0  0  0  0
 17 20  1  0  0  0  0
  5 17  1  0  0  0  0
M  END
$$$$
