M001
  Spartan 07221915283D

 20 20  0  0  0  0  0  0  0  0999 V2000
   -0.1538    0.4899    0.8072 O   0  0  0  0  0  0  0  0  0  0  0  0
    0.8102    0.9656    1.6743 N   0  0  0  0  0  0  0  0  0  0  0  0
    0.2600    0.9406    2.9007 C   0  0  0  0  0  0  0  0  0  0  0  0
   -1.0716    0.4451    2.8316 C   0  0  0  0  0  0  0  0  0  0  0  0
   -1.2781    0.1794    1.5020 C   0  0  0  0  0  0  0  0  0  0  0  0
   -1.7702    0.3064    3.6433 H   0  0  0  0  0  0  0  0  0  0  0  0
    1.0008    1.3798    4.0832 C   0  0  0  0  0  0  0  0  0  0  0  0
    0.2489    1.2695    5.2238 O   0  0  0  0  0  0  0  0  0  0  0  0
    0.8921    1.6820    6.4385 C   0  0  0  0  0  0  0  0  0  0  0  0
    0.0997    1.9769    7.1343 H   0  0  0  0  0  0  0  0  0  0  0  0
    1.5221    2.5644    6.2785 H   0  0  0  0  0  0  0  0  0  0  0  0
    1.6842    0.5307    7.0291 C   0  0  0  0  0  0  0  0  0  0  0  0
    1.0385   -0.3398    7.1854 H   0  0  0  0  0  0  0  0  0  0  0  0
    2.1289    0.8167    7.9865 H   0  0  0  0  0  0  0  0  0  0  0  0
    2.4847    0.2156    6.3524 H   0  0  0  0  0  0  0  0  0  0  0  0
    2.1546    1.7946    4.0668 O   0  0  0  0  0  0  0  0  0  0  0  0
   -2.4088   -0.3454    0.7174 C   0  0  0  0  0  0  0  0  0  0  0  0
   -2.1236   -1.2684    0.2034 H   0  0  0  0  0  0  0  0  0  0  0  0
   -2.7264    0.3845   -0.0334 H   0  0  0  0  0  0  0  0  0  0  0  0
   -3.2654   -0.5655    1.3620 H   0  0  0  0  0  0  0  0  0  0  0  0
  1  2  1  0  0  0  0
  1  5  1  0  0  0  0
  2  3  2  0  0  0  0
  3  4  1  0  0  0  0
  4  6  1  0  0  0  0
  4  5  2  0  0  0  0
  3  7  1  0  0  0  0
  7  8  1  0  0  0  0
  9 10  1  0  0  0  0
  9 11  1  0  0  0  0
  8  9  1  0  0  0  0
 12 13  1  0  0  0  0
 12 14  1  0  0  0  0
 12 15  1  0  0  0  0
  9 12  1  0  0  0  0
  7 16  2  0  0  0  0
 17 18  1  0  0  0  0
 17 19  1  0  0  0  0
 17 20  1  0  0  0  0
  5 17  1  0  0  0  0
M  END
$$$$
