M001
  Spartan 07221915303D

 17 17  0  0  0  0  0  0  0  0999 V2000
    3.0252   -1.6890   -1.4895 O   0  0  0  0  0  0  0  0  0  0  0  0
    1.7119   -1.7488   -1.9305 N   0  0  0  0  0  0  0  0  0  0  0  0
    1.0050   -1.0784   -1.0169 C   0  0  0  0  0  0  0  0  0  0  0  0
    1.8140   -0.5737    0.0210 C   0  0  0  0  0  0  0  0  0  0  0  0
    3.0760   -0.9889   -0.3295 C   0  0  0  0  0  0  0  0  0  0  0  0
   -0.0646   -0.9882   -1.1487 H   0  0  0  0  0  0  0  0  0  0  0  0
    1.4652    0.1937    1.1869 C   0  0  0  0  0  0  0  0  0  0  0  0
    0.1268    0.4480    1.2539 O   0  0  0  0  0  0  0  0  0  0  0  0
   -0.2710    1.2109    2.3997 C   0  0  0  0  0  0  0  0  0  0  0  0
   -0.0090    0.6681    3.3148 H   0  0  0  0  0  0  0  0  0  0  0  0
    0.2328    2.1840    2.3893 H   0  0  0  0  0  0  0  0  0  0  0  0
   -1.7726    1.4114    2.3358 C   0  0  0  0  0  0  0  0  0  0  0  0
   -2.2901    0.4464    2.3238 H   0  0  0  0  0  0  0  0  0  0  0  0
   -2.0528    1.9344    1.4155 H   0  0  0  0  0  0  0  0  0  0  0  0
   -2.1257    1.9911    3.1932 H   0  0  0  0  0  0  0  0  0  0  0  0
    2.2854    0.5685    2.0152 O   0  0  0  0  0  0  0  0  0  0  0  0
    4.0566   -0.8768    0.1104 H   0  0  0  0  0  0  0  0  0  0  0  0
  1  2  1  0  0  0  0
  1  5  1  0  0  0  0
  2  3  2  0  0  0  0
  3  4  1  0  0  0  0
  4  5  2  0  0  0  0
  3  6  1  0  0  0  0
  4  7  1  0  0  0  0
  7  8  1  0  0  0  0
  9 10  1  0  0  0  0
  9 11  1  0  0  0  0
  8  9  1  0  0  0  0
 12 13  1  0  0  0  0
 12 14  1  0  0  0  0
 12 15  1  0  0  0  0
  9 12  1  0  0  0  0
  7 16  2  0  0  0  0
  5 17  1  0  0  0  0
M  END
$$$$
