M001
  Spartan 07221915323D

 14 14  0  0  0  0  0  0  0  0999 V2000
    2.8439   -1.7154   -1.5949 O   0  0  0  0  0  0  0  0  0  0  0  0
    1.5658   -2.2383   -1.7215 N   0  0  0  0  0  0  0  0  0  0  0  0
    0.8566   -1.6791   -0.7402 C   0  0  0  0  0  0  0  0  0  0  0  0
    1.6309   -0.7992    0.0336 C   0  0  0  0  0  0  0  0  0  0  0  0
    2.8837   -0.8500   -0.5398 C   0  0  0  0  0  0  0  0  0  0  0  0
   -0.1877   -1.9393   -0.6368 H   0  0  0  0  0  0  0  0  0  0  0  0
    1.3289   -0.2099    0.8863 H   0  0  0  0  0  0  0  0  0  0  0  0
    4.1325   -0.2027   -0.2473 C   0  0  0  0  0  0  0  0  0  0  0  0
    5.1848   -0.3485   -0.8566 O   0  0  0  0  0  0  0  0  0  0  0  0
    3.9778    0.6196    0.8338 O   0  0  0  0  0  0  0  0  0  0  0  0
    5.1684    1.3140    1.2083 C   0  0  0  0  0  0  0  0  0  0  0  0
    5.9529    0.6053    1.4917 H   0  0  0  0  0  0  0  0  0  0  0  0
    5.5058    1.9636    0.3946 H   0  0  0  0  0  0  0  0  0  0  0  0
    4.9371    1.9384    2.0757 H   0  0  0  0  0  0  0  0  0  0  0  0
  1  2  1  0  0  0  0
  1  5  1  0  0  0  0
  2  3  2  0  0  0  0
  3  4  1  0  0  0  0
  4  5  2  0  0  0  0
  3  6  1  0  0  0  0
  4  7  1  0  0  0  0
  5  8  1  0  0  0  0
  8  9  2  0  0  0  0
  8 10  1  0  0  0  0
 11 12  1  0  0  0  0
 11 13  1  0  0  0  0
 10 11  1  0  0  0  0
 11 14  1  0  0  0  0
M  END
$$$$
