M001
  Spartan 07221915323D

 26 27  0  0  0  0  0  0  0  0999 V2000
    0.0551   -0.1554    0.0699 H   0  0  0  0  0  0  0  0  0  0  0  0
    0.0831   -0.0697    1.1625 C   0  0  0  0  0  0  0  0  0  0  0  0
    0.1424    1.4806    3.0423 C   0  0  0  0  0  0  0  0  0  0  0  0
   -1.5491   -0.3464    3.0222 C   0  0  0  0  0  0  0  0  0  0  0  0
   -1.0487    0.8265    3.5580 N   0  0  0  0  0  0  0  0  0  0  0  0
   -1.1053   -0.6639    1.7529 N   0  0  0  0  0  0  0  0  0  0  0  0
    0.1741    1.3917    1.5341 C   0  0  0  0  0  0  0  0  0  0  0  0
    1.0343    1.0116    3.4758 H   0  0  0  0  0  0  0  0  0  0  0  0
   -0.6700    1.9452    1.1041 H   0  0  0  0  0  0  0  0  0  0  0  0
    0.9721   -0.6118    1.5077 H   0  0  0  0  0  0  0  0  0  0  0  0
    0.1581    2.5382    3.3308 H   0  0  0  0  0  0  0  0  0  0  0  0
    1.0964    1.8325    1.1414 H   0  0  0  0  0  0  0  0  0  0  0  0
   -1.5421   -1.9100    1.1376 C   0  0  0  0  0  0  0  0  0  0  0  0
   -0.8487   -2.7164    1.4058 H   0  0  0  0  0  0  0  0  0  0  0  0
   -1.5406   -1.8216    0.0451 H   0  0  0  0  0  0  0  0  0  0  0  0
   -2.9442   -2.2349    1.6059 C   0  0  0  0  0  0  0  0  0  0  0  0
   -3.2739   -3.1964    1.1988 H   0  0  0  0  0  0  0  0  0  0  0  0
   -3.6461   -1.4674    1.2565 H   0  0  0  0  0  0  0  0  0  0  0  0
   -2.9322   -2.2744    3.1190 C   0  0  0  0  0  0  0  0  0  0  0  0
   -2.3398   -3.1224    3.4822 H   0  0  0  0  0  0  0  0  0  0  0  0
   -3.9554   -2.4226    3.4810 H   0  0  0  0  0  0  0  0  0  0  0  0
   -2.4079   -1.0420    3.6971 N   0  0  0  0  0  0  0  0  0  0  0  0
   -1.4014    1.1789    4.9310 C   0  0  0  0  0  0  0  0  0  0  0  0
   -0.9133    0.4986    5.6369 H   0  0  0  0  0  0  0  0  0  0  0  0
   -2.4852    1.1349    5.0839 H   0  0  0  0  0  0  0  0  0  0  0  0
   -1.0908    2.2008    5.1744 H   0  0  0  0  0  0  0  0  0  0  0  0
  1  2  1  0  0  0  0
  2 10  1  0  0  0  0
  2  6  1  0  0  0  0
  2  7  1  0  0  0  0
  3  8  1  0  0  0  0
  3 11  1  0  0  0  0
  3  5  1  0  0  0  0
  3  7  1  0  0  0  0
  4  6  1  0  0  0  0
  4  5  1  0  0  0  0
  7  9  1  0  0  0  0
  7 12  1  0  0  0  0
 13 14  1  0  0  0  0
 13 15  1  0  0  0  0
  6 13  1  0  0  0  0
 16 17  1  0  0  0  0
 16 18  1  0  0  0  0
 13 16  1  0  0  0  0
 19 20  1  0  0  0  0
 19 21  1  0  0  0  0
 16 19  1  0  0  0  0
 19 22  1  0  0  0  0
  4 22  2  0  0  0  0
 23 24  1  0  0  0  0
 23 25  1  0  0  0  0
 23 26  1  0  0  0  0
  5 23  1  0  0  0  0
M  END
$$$$
