M001
  Spartan 07221915343D

 36 38  0  0  0  0  0  0  0  0999 V2000
    1.9238   -0.3031   -2.1956 O   0  0  0  0  0  0  0  0  0  0  0  0
    0.5538   -0.4161   -2.3658 N   0  0  0  0  0  0  0  0  0  0  0  0
    0.1866   -1.4108   -1.5584 C   0  0  0  0  0  0  0  0  0  0  0  0
    1.2798   -1.9646   -0.8717 C   0  0  0  0  0  0  0  0  0  0  0  0
    2.3688   -1.2398   -1.3002 C   0  0  0  0  0  0  0  0  0  0  0  0
    1.2687   -2.7694   -0.1551 H   0  0  0  0  0  0  0  0  0  0  0  0
   -0.8572   -1.6849   -1.5068 H   0  0  0  0  0  0  0  0  0  0  0  0
    3.6977   -1.2784   -0.9997 N   0  0  0  0  0  0  0  0  0  0  0  0
    4.2517   -2.3667   -0.1916 C   0  0  0  0  0  0  0  0  0  0  0  0
    5.3484   -2.3232   -0.1741 H   0  0  0  0  0  0  0  0  0  0  0  0
    3.9961   -3.3235   -0.6657 H   0  0  0  0  0  0  0  0  0  0  0  0
    4.6494   -0.4975   -1.7935 C   0  0  0  0  0  0  0  0  0  0  0  0
    5.4682   -1.1435   -2.1378 H   0  0  0  0  0  0  0  0  0  0  0  0
    4.2118   -0.1002   -2.7185 H   0  0  0  0  0  0  0  0  0  0  0  0
    3.7926   -2.3584    1.2531 C   0  0  0  0  0  0  0  0  0  0  0  0
    3.0137   -2.3966    3.9541 C   0  0  0  0  0  0  0  0  0  0  0  0
    3.4899   -3.5698    1.8961 C   0  0  0  0  0  0  0  0  0  0  0  0
    3.7198   -1.1706    1.9953 C   0  0  0  0  0  0  0  0  0  0  0  0
    3.3267   -1.1890    3.3347 C   0  0  0  0  0  0  0  0  0  0  0  0
    3.0974   -3.5873    3.2362 C   0  0  0  0  0  0  0  0  0  0  0  0
    3.5565   -4.5115    1.3557 H   0  0  0  0  0  0  0  0  0  0  0  0
    3.9617   -0.2177    1.5298 H   0  0  0  0  0  0  0  0  0  0  0  0
    3.2672   -0.2577    3.8918 H   0  0  0  0  0  0  0  0  0  0  0  0
    2.8603   -4.5306    3.7213 H   0  0  0  0  0  0  0  0  0  0  0  0
    2.7088   -2.4088    4.9971 H   0  0  0  0  0  0  0  0  0  0  0  0
    5.2071    0.6535   -0.9868 C   0  0  0  0  0  0  0  0  0  0  0  0
    6.2151    2.7859    0.5346 C   0  0  0  0  0  0  0  0  0  0  0  0
    6.4931    0.5871   -0.4306 C   0  0  0  0  0  0  0  0  0  0  0  0
    4.4323    1.8021   -0.7646 C   0  0  0  0  0  0  0  0  0  0  0  0
    4.9346    2.8624   -0.0091 C   0  0  0  0  0  0  0  0  0  0  0  0
    6.9936    1.6490    0.3252 C   0  0  0  0  0  0  0  0  0  0  0  0
    7.1123   -0.2942   -0.5781 H   0  0  0  0  0  0  0  0  0  0  0  0
    3.4257    1.8679   -1.1739 H   0  0  0  0  0  0  0  0  0  0  0  0
    4.3232    3.7454    0.1574 H   0  0  0  0  0  0  0  0  0  0  0  0
    7.9907    1.5884    0.7535 H   0  0  0  0  0  0  0  0  0  0  0  0
    6.6049    3.6113    1.1243 H   0  0  0  0  0  0  0  0  0  0  0  0
  1  2  1  0  0  0  0
  1  5  1  0  0  0  0
  2  3  2  0  0  0  0
  3  4  1  0  0  0  0
  4  5  2  0  0  0  0
  4  6  1  0  0  0  0
  3  7  1  0  0  0  0
  5  8  1  0  0  0  0
  9 10  1  0  0  0  0
  9 11  1  0  0  0  0
  8  9  1  0  0  0  0
 12 13  1  0  0  0  0
 12 14  1  0  0  0  0
  8 12  1  0  0  0  0
 15 18  4  0  0  0  0
 18 19  4  0  0  0  0
 16 19  4  0  0  0  0
 16 20  4  0  0  0  0
 17 20  4  0  0  0  0
 15 17  4  0  0  0  0
 19 23  1  0  0  0  0
 20 24  1  0  0  0  0
 16 25  1  0  0  0  0
 17 21  1  0  0  0  0
 18 22  1  0  0  0  0
  9 15  1  0  0  0  0
 26 29  4  0  0  0  0
 29 30  4  0  0  0  0
 27 30  4  0  0  0  0
 27 31  4  0  0  0  0
 28 31  4  0  0  0  0
 26 28  4  0  0  0  0
 30 34  1  0  0  0  0
 31 35  1  0  0  0  0
 27 36  1  0  0  0  0
 28 32  1  0  0  0  0
 29 33  1  0  0  0  0
 12 26  1  0  0  0  0
M  END
$$$$
