M001
  Spartan 07221915353D

 83 84  0  0  0  0  0  0  0  0999 V2000
    4.3938   -0.6464    3.3382 H   0  0  0  0  0  0  0  0  0  0  0  0
    3.5321   -0.8625    3.9611 C   0  0  0  0  0  0  0  0  0  0  0  0
    1.3645   -1.3924    5.6779 C   0  0  0  0  0  0  0  0  0  0  0  0
    2.3509   -1.3912    3.4275 C   0  0  0  0  0  0  0  0  0  0  0  0
    3.6340   -0.5514    5.3105 C   0  0  0  0  0  0  0  0  0  0  0  0
    2.5654   -0.7964    6.1660 C   0  0  0  0  0  0  0  0  0  0  0  0
    1.2232   -1.6381    4.2582 C   0  0  0  0  0  0  0  0  0  0  0  0
    4.5653   -0.1210    5.6612 H   0  0  0  0  0  0  0  0  0  0  0  0
   -0.4144   -2.1505    3.5640 P   0  0  0  0  0  0  0  0  0  0  0  0
    0.3078   -1.7285    6.6956 C   0  0  0  0  0  0  0  0  0  0  0  0
   -1.6692   -2.3428    8.6734 C   0  0  0  0  0  0  0  0  0  0  0  0
    0.3757   -2.9484    7.4484 C   0  0  0  0  0  0  0  0  0  0  0  0
   -0.7200   -0.7910    7.0200 C   0  0  0  0  0  0  0  0  0  0  0  0
   -1.6909   -1.1277    7.9890 C   0  0  0  0  0  0  0  0  0  0  0  0
   -0.6218   -3.2260    8.4093 C   0  0  0  0  0  0  0  0  0  0  0  0
   -2.4682   -0.4088    8.2386 H   0  0  0  0  0  0  0  0  0  0  0  0
   -0.5653   -4.1437    8.9893 H   0  0  0  0  0  0  0  0  0  0  0  0
    1.5441   -3.9378    7.3329 C   0  0  0  0  0  0  0  0  0  0  0  0
    2.0516   -3.7878    6.3751 H   0  0  0  0  0  0  0  0  0  0  0  0
    2.5691   -3.7156    8.4539 C   0  0  0  0  0  0  0  0  0  0  0  0
    2.1257   -3.8766    9.4433 H   0  0  0  0  0  0  0  0  0  0  0  0
    2.9784   -2.7051    8.4438 H   0  0  0  0  0  0  0  0  0  0  0  0
    3.4110   -4.4089    8.3485 H   0  0  0  0  0  0  0  0  0  0  0  0
    1.1194   -5.4175    7.3739 C   0  0  0  0  0  0  0  0  0  0  0  0
    0.8654   -5.7450    8.3884 H   0  0  0  0  0  0  0  0  0  0  0  0
    1.9424   -6.0546    7.0308 H   0  0  0  0  0  0  0  0  0  0  0  0
    0.2519   -5.6184    6.7425 H   0  0  0  0  0  0  0  0  0  0  0  0
   -2.7356   -2.6501    9.7087 C   0  0  0  0  0  0  0  0  0  0  0  0
   -3.4757   -1.8388    9.7000 H   0  0  0  0  0  0  0  0  0  0  0  0
   -2.1442   -2.7075   11.1192 C   0  0  0  0  0  0  0  0  0  0  0  0
   -1.6203   -1.7764   11.3623 H   0  0  0  0  0  0  0  0  0  0  0  0
   -1.4298   -3.5306   11.2304 H   0  0  0  0  0  0  0  0  0  0  0  0
   -2.9354   -2.8509   11.8630 H   0  0  0  0  0  0  0  0  0  0  0  0
   -3.4910   -3.9408    9.3801 C   0  0  0  0  0  0  0  0  0  0  0  0
   -2.8421   -4.8218    9.4314 H   0  0  0  0  0  0  0  0  0  0  0  0
   -3.9178   -3.8984    8.3718 H   0  0  0  0  0  0  0  0  0  0  0  0
   -4.3142   -4.0944   10.0863 H   0  0  0  0  0  0  0  0  0  0  0  0
   -0.7603    0.6198    6.4297 C   0  0  0  0  0  0  0  0  0  0  0  0
   -0.0897    0.6779    5.5694 H   0  0  0  0  0  0  0  0  0  0  0  0
   -0.2681    1.6521    7.4512 C   0  0  0  0  0  0  0  0  0  0  0  0
   -0.2397    2.6519    7.0043 H   0  0  0  0  0  0  0  0  0  0  0  0
    0.7406    1.4170    7.8027 H   0  0  0  0  0  0  0  0  0  0  0  0
   -0.9208    1.6981    8.3301 H   0  0  0  0  0  0  0  0  0  0  0  0
   -2.1535    1.0191    5.9258 C   0  0  0  0  0  0  0  0  0  0  0  0
   -2.0966    1.9454    5.3433 H   0  0  0  0  0  0  0  0  0  0  0  0
   -2.8574    1.1996    6.7450 H   0  0  0  0  0  0  0  0  0  0  0  0
   -2.5801    0.2417    5.2869 H   0  0  0  0  0  0  0  0  0  0  0  0
   -0.3351   -3.9061    2.9683 C   0  0  0  0  0  0  0  0  0  0  0  0
   -1.7040   -4.3535    2.4124 C   0  0  0  0  0  0  0  0  0  0  0  0
   -0.0670   -4.8077    4.1887 C   0  0  0  0  0  0  0  0  0  0  0  0
   -2.5184   -4.1498    3.1184 H   0  0  0  0  0  0  0  0  0  0  0  0
   -0.8070   -4.6450    4.9809 H   0  0  0  0  0  0  0  0  0  0  0  0
   -1.9527   -3.8680    1.4665 H   0  0  0  0  0  0  0  0  0  0  0  0
    0.9310   -4.6283    4.5977 H   0  0  0  0  0  0  0  0  0  0  0  0
   -0.9695   -0.9850    2.2178 C   0  0  0  0  0  0  0  0  0  0  0  0
   -2.5213   -0.9385    2.2653 C   0  0  0  0  0  0  0  0  0  0  0  0
   -0.5862   -1.3305    0.7740 C   0  0  0  0  0  0  0  0  0  0  0  0
   -2.9752   -1.8990    2.0031 H   0  0  0  0  0  0  0  0  0  0  0  0
   -0.9801   -2.2951    0.4494 H   0  0  0  0  0  0  0  0  0  0  0  0
   -2.8955   -0.6619    3.2562 H   0  0  0  0  0  0  0  0  0  0  0  0
    0.4892   -1.3291    0.6016 H   0  0  0  0  0  0  0  0  0  0  0  0
   -1.7146   -5.4325    2.2134 H   0  0  0  0  0  0  0  0  0  0  0  0
   -0.1091   -5.8704    3.9197 H   0  0  0  0  0  0  0  0  0  0  0  0
   -1.0012   -0.5900    0.0776 H   0  0  0  0  0  0  0  0  0  0  0  0
   -2.9150   -0.1994    1.5565 H   0  0  0  0  0  0  0  0  0  0  0  0
   -0.4847    0.4555    2.4881 C   0  0  0  0  0  0  0  0  0  0  0  0
    0.6031    0.5498    2.4219 H   0  0  0  0  0  0  0  0  0  0  0  0
   -0.7946    0.8153    3.4705 H   0  0  0  0  0  0  0  0  0  0  0  0
   -0.9021    1.1550    1.7529 H   0  0  0  0  0  0  0  0  0  0  0  0
    0.7525   -4.2326    1.9399 C   0  0  0  0  0  0  0  0  0  0  0  0
    1.7574   -4.1096    2.3565 H   0  0  0  0  0  0  0  0  0  0  0  0
    0.6851   -3.6314    1.0329 H   0  0  0  0  0  0  0  0  0  0  0  0
    0.6827   -5.2806    1.6214 H   0  0  0  0  0  0  0  0  0  0  0  0
    2.2284   -1.6525    2.0882 O   0  0  0  0  0  0  0  0  0  0  0  0
    2.5925   -0.4807    7.5044 O   0  0  0  0  0  0  0  0  0  0  0  0
    3.4017   -1.6692    1.2855 C   0  0  0  0  0  0  0  0  0  0  0  0
    3.8001   -0.6581    1.1556 H   0  0  0  0  0  0  0  0  0  0  0  0
    3.1222   -2.0436    0.2959 H   0  0  0  0  0  0  0  0  0  0  0  0
    4.1576   -2.3479    1.6944 H   0  0  0  0  0  0  0  0  0  0  0  0
    3.6923    0.2700    7.9980 C   0  0  0  0  0  0  0  0  0  0  0  0
    4.6177   -0.3127    7.9504 H   0  0  0  0  0  0  0  0  0  0  0  0
    3.4965    0.4951    9.0508 H   0  0  0  0  0  0  0  0  0  0  0  0
    3.7938    1.2229    7.4682 H   0  0  0  0  0  0  0  0  0  0  0  0
  1  2  1  0  0  0  0
  2  5  4  0  0  0  0
  5  6  4  0  0  0  0
  3  6  4  0  0  0  0
  3  7  4  0  0  0  0
  4  7  4  0  0  0  0
  2  4  4  0  0  0  0
  5  8  1  0  0  0  0
  7  9  1  0  0  0  0
 10 13  4  0  0  0  0
 13 14  4  0  0  0  0
 11 14  4  0  0  0  0
 11 15  4  0  0  0  0
 12 15  4  0  0  0  0
 10 12  4  0  0  0  0
 14 16  1  0  0  0  0
 15 17  1  0  0  0  0
  3 10  1  0  0  0  0
 18 19  1  0  0  0  0
 12 18  1  0  0  0  0
 20 21  1  0  0  0  0
 20 22  1  0  0  0  0
 20 23  1  0  0  0  0
 18 20  1  0  0  0  0
 24 25  1  0  0  0  0
 24 26  1  0  0  0  0
 24 27  1  0  0  0  0
 18 24  1  0  0  0  0
 28 29  1  0  0  0  0
 11 28  1  0  0  0  0
 30 31  1  0  0  0  0
 30 32  1  0  0  0  0
 30 33  1  0  0  0  0
 28 30  1  0  0  0  0
 34 35  1  0  0  0  0
 34 36  1  0  0  0  0
 34 37  1  0  0  0  0
 28 34  1  0  0  0  0
 38 39  1  0  0  0  0
 13 38  1  0  0  0  0
 40 41  1  0  0  0  0
 40 42  1  0  0  0  0
 40 43  1  0  0  0  0
 38 40  1  0  0  0  0
 44 45  1  0  0  0  0
 44 46  1  0  0  0  0
 44 47  1  0  0  0  0
 38 44  1  0  0  0  0
 48 49  1  0  0  0  0
 48 50  1  0  0  0  0
 49 51  1  0  0  0  0
 49 53  1  0  0  0  0
 50 52  1  0  0  0  0
 50 54  1  0  0  0  0
  9 48  1  0  0  0  0
 55 56  1  0  0  0  0
 55 57  1  0  0  0  0
 56 58  1  0  0  0  0
 56 60  1  0  0  0  0
 57 59  1  0  0  0  0
 57 61  1  0  0  0  0
  9 55  1  0  0  0  0
 49 62  1  0  0  0  0
 50 63  1  0  0  0  0
 57 64  1  0  0  0  0
 56 65  1  0  0  0  0
 66 67  1  0  0  0  0
 66 68  1  0  0  0  0
 66 69  1  0  0  0  0
 55 66  1  0  0  0  0
 70 71  1  0  0  0  0
 70 72  1  0  0  0  0
 70 73  1  0  0  0  0
 48 70  1  0  0  0  0
  4 74  1  0  0  0  0
  6 75  1  0  0  0  0
 76 77  1  0  0  0  0
 76 78  1  0  0  0  0
 76 79  1  0  0  0  0
 74 76  1  0  0  0  0
 80 81  1  0  0  0  0
 80 82  1  0  0  0  0
 80 83  1  0  0  0  0
 75 80  1  0  0  0  0
M  END
$$$$
